<?xml version="1.0" encoding="UTF-8"?>

<!-- generated on 2023-01-29 14:37:14 by Eclipse SUMO duarouter Version 1.14.1
<configuration xmlns:xsi="http://www.w3.org/2001/XMLSchema-instance" xsi:noNamespaceSchemaLocation="http://sumo.dlr.de/xsd/duarouterConfiguration.xsd">

    <input>
        <net-file value="../osm.net.xml"/>
        <route-files value="route_file.rou.xml"/>
    </input>

    <output>
        <output-file value="../filtered.rou.xml"/>
        <write-trips value="true"/>
    </output>

    <report>
        <ignore-errors value="true"/>
    </report>

</configuration>
-->

<routes xmlns:xsi="http://www.w3.org/2001/XMLSchema-instance" xsi:noNamespaceSchemaLocation="http://sumo.dlr.de/xsd/routes_file.xsd">
    <vType id="random" vClass="passenger" color="blue"/>
    <trip id="randUni14520:1" type="random" depart="4.00" departPos="0.23" arrivalPos="41.40" arrivalSpeed="0.00" from="886496556" to="822124413"/>
    <trip id="randUni212:1" type="random" depart="228.00" departPos="61.06" arrivalPos="0.66" arrivalSpeed="0.00" from="142575657#6" to="800655351"/>
    <trip id="randUni8474:1" type="random" depart="241.00" departPos="14.99" arrivalPos="12.70" arrivalSpeed="0.00" from="334308447#5" to="229228933#1"/>
    <trip id="randUni1113:1" type="random" depart="255.00" departPos="8.33" arrivalPos="36.93" arrivalSpeed="0.00" from="-143308521#1" to="140964907#0"/>
    <trip id="randUni2252:1" type="random" depart="262.00" departPos="19.68" arrivalPos="0.05" arrivalSpeed="0.00" from="-142575691#1" to="259433181"/>
    <trip id="randUni2305:1" type="random" depart="267.00" departPos="11.24" arrivalPos="37.44" arrivalSpeed="0.00" from="142575684#5" to="-52080655#2"/>
    <trip id="randUni13623:1" type="random" depart="286.00" departPos="63.72" arrivalPos="30.02" arrivalSpeed="0.00" from="-314415495#2" to="1075528616#1"/>
    <trip id="randUni10572:1" type="random" depart="305.00" departPos="33.27" arrivalPos="0.45" arrivalSpeed="0.00" from="166142947" to="142575684#2"/>
    <trip id="randUni14582:1" type="random" depart="372.00" departPos="0.12" arrivalPos="43.78" arrivalSpeed="0.00" from="23925124#0" to="-142810578#1"/>
    <trip id="randUni3513:1" type="random" depart="524.00" departPos="14.05" arrivalPos="6.28" arrivalSpeed="0.00" from="-142575672#2" to="-257072322#3"/>
    <trip id="randUni16721:1" type="random" depart="530.00" departPos="121.13" arrivalPos="106.39" arrivalSpeed="0.00" from="-23913523#3" to="177615723#0"/>
    <trip id="randUni4931:1" type="random" depart="546.00" departPos="7.14" arrivalPos="1.37" arrivalSpeed="0.00" from="142575710#2" to="-142575710#2"/>
    <trip id="randUni8516:1" type="random" depart="585.00" departPos="10.71" arrivalPos="17.65" arrivalSpeed="0.00" from="-148803147#0" to="318210374"/>
    <trip id="randUni567:1" type="random" depart="764.00" departPos="52.85" arrivalPos="32.95" arrivalSpeed="0.00" from="-38915289#0" to="113575152#8"/>
    <trip id="randUni7776:1" type="random" depart="774.00" departPos="30.98" arrivalPos="4.28" arrivalSpeed="0.00" from="142575661#0" to="23913523#2"/>
    <trip id="randUni7385:1" type="random" depart="879.00" departPos="25.54" arrivalPos="20.40" arrivalSpeed="0.00" from="-180789857#2" to="178028206#1"/>
    <trip id="randUni15198:1" type="random" depart="948.00" departPos="12.79" arrivalPos="2.09" arrivalSpeed="0.00" from="-187122976" to="27087586#4"/>
    <trip id="randUni7675:1" type="random" depart="987.00" departPos="73.75" arrivalPos="2.03" arrivalSpeed="0.00" from="187112040" to="140964915#0"/>
    <trip id="randUni4233:1" type="random" depart="1050.00" departPos="12.28" arrivalPos="54.75" arrivalSpeed="0.00" from="-1125710844#2" to="27087586#0"/>
    <trip id="randUni6325:1" type="random" depart="1057.00" departPos="0.18" arrivalPos="26.42" arrivalSpeed="0.00" from="-1013946650" to="257072322#3"/>
    <trip id="randUni12036:1" type="random" depart="1154.00" departPos="1.47" arrivalPos="177.48" arrivalSpeed="0.00" from="-1102335607#0" to="-146511461#6"/>
    <trip id="randUni9816:1" type="random" depart="1417.00" departPos="57.45" arrivalPos="51.96" arrivalSpeed="0.00" from="-170543741#1" to="311299992#3"/>
    <trip id="randUni2216:1" type="random" depart="1425.00" departPos="17.18" arrivalPos="21.57" arrivalSpeed="0.00" from="-1050686755#1" to="-142575674#3"/>
    <trip id="randUni4184:1" type="random" depart="1427.00" departPos="2.58" arrivalPos="67.40" arrivalSpeed="0.00" from="-142575688#3" to="142575701#1"/>
    <trip id="randUni6951:1" type="random" depart="1438.00" departPos="3.94" arrivalPos="6.27" arrivalSpeed="0.00" from="-142575657#6" to="-843190005#0"/>
    <trip id="randUni1389:1" type="random" depart="1489.00" departPos="6.74" arrivalPos="4.00" arrivalSpeed="0.00" from="143308546#3" to="-170543741#1"/>
    <trip id="randUni15083:1" type="random" depart="1539.00" departPos="2.40" arrivalPos="7.88" arrivalSpeed="0.00" from="-142575684#4" to="1050686755#4"/>
    <trip id="randUni4634:1" type="random" depart="1689.00" departPos="38.01" arrivalPos="83.88" arrivalSpeed="0.00" from="-149611511#2" to="447835331#5"/>
    <trip id="randUni14986:1" type="random" depart="1698.00" departPos="1.89" arrivalPos="47.57" arrivalSpeed="0.00" from="142810558#9" to="412894107#0"/>
    <trip id="randUni13186:1" type="random" depart="1723.00" departPos="0.16" arrivalPos="38.61" arrivalSpeed="0.00" from="-1013946650" to="1050686755#3"/>
    <trip id="randUni5808:1" type="random" depart="1798.00" departPos="2.56" arrivalPos="14.44" arrivalSpeed="0.00" from="26991766#0" to="-149611514#2"/>
    <trip id="randUni1889:1" type="random" depart="1825.00" departPos="19.02" arrivalPos="26.89" arrivalSpeed="0.00" from="-140964907#2" to="24152326#0"/>
    <trip id="randUni15511:1" type="random" depart="1877.00" departPos="82.76" arrivalPos="23.62" arrivalSpeed="0.00" from="-925189367" to="40191605#2"/>
    <trip id="randUni13177:1" type="random" depart="1935.00" departPos="66.09" arrivalPos="3.35" arrivalSpeed="0.00" from="-23913524" to="142575684#4"/>
    <trip id="randUni14823:1" type="random" depart="1942.00" departPos="90.34" arrivalPos="17.83" arrivalSpeed="0.00" from="-147053824#4" to="-257072322#3"/>
    <trip id="randUni9970:1" type="random" depart="1988.00" departPos="8.01" arrivalPos="110.39" arrivalSpeed="0.00" from="-142575673#0" to="190083610#0"/>
    <trip id="randUni7770:1" type="random" depart="2065.00" departPos="25.10" arrivalPos="32.61" arrivalSpeed="0.00" from="-172014854#1" to="-142575704#7"/>
    <trip id="randUni6411:1" type="random" depart="2132.00" departPos="91.42" arrivalPos="41.90" arrivalSpeed="0.00" from="143308542#0" to="23793394"/>
    <trip id="randUni13318:1" type="random" depart="2186.00" departPos="0.12" arrivalPos="37.05" arrivalSpeed="0.00" from="31091960#0" to="40191605#6"/>
    <trip id="randUni5581:1" type="random" depart="2197.00" departPos="97.35" arrivalPos="12.77" arrivalSpeed="0.00" from="-38915289#1" to="26991766#9"/>
    <trip id="randUni8156:1" type="random" depart="2207.00" departPos="40.56" arrivalPos="62.02" arrivalSpeed="0.00" from="-35554225#3" to="149611514#7"/>
    <trip id="randUni10857:1" type="random" depart="2211.00" departPos="95.54" arrivalPos="0.86" arrivalSpeed="0.00" from="46039050#2" to="31091960#3"/>
    <trip id="randUni3917:1" type="random" depart="2221.00" departPos="0.37" arrivalPos="12.54" arrivalSpeed="0.00" from="-142575699#1" to="-229228933#0"/>
    <trip id="randUni4528:1" type="random" depart="2225.00" departPos="4.68" arrivalPos="3.21" arrivalSpeed="0.00" from="843190005#0" to="146511468#1"/>
    <trip id="randUni15011:1" type="random" depart="2270.00" departPos="19.70" arrivalPos="14.11" arrivalSpeed="0.00" from="-143308562#1" to="376421806#6"/>
    <trip id="randUni2443:1" type="random" depart="2275.00" departPos="92.79" arrivalPos="2.79" arrivalSpeed="0.00" from="190083610#0" to="24152326#1"/>
    <trip id="randUni14530:1" type="random" depart="2378.00" departPos="45.70" arrivalPos="26.53" arrivalSpeed="0.00" from="-142575691#1" to="376421806#3"/>
    <trip id="randUni16112:1" type="random" depart="2390.00" departPos="2.05" arrivalPos="80.59" arrivalSpeed="0.00" from="887919960#0" to="26613776"/>
    <trip id="randUni9761:1" type="random" depart="2394.00" departPos="16.16" arrivalPos="5.39" arrivalSpeed="0.00" from="-1093549448#2" to="23925124#2"/>
    <trip id="randUni10954:1" type="random" depart="2444.00" departPos="47.58" arrivalPos="8.66" arrivalSpeed="0.00" from="-298150665#0" to="46039050#3"/>
    <trip id="randUni379:1" type="random" depart="2637.00" departPos="63.80" arrivalPos="16.31" arrivalSpeed="0.00" from="-142575674#0" to="178028204#5"/>
    <trip id="randUni5639:1" type="random" depart="2805.00" departPos="14.40" arrivalPos="24.30" arrivalSpeed="0.00" from="187123437#1" to="35554225#4"/>
    <trip id="randUni5839:1" type="random" depart="2838.00" departPos="85.49" arrivalPos="12.84" arrivalSpeed="0.00" from="-162915320#3" to="1072685941"/>
    <trip id="randUni5727:1" type="random" depart="2878.00" departPos="0.17" arrivalPos="3.53" arrivalSpeed="0.00" from="1050686755#0" to="-257072322#3"/>
    <trip id="randUni15955:1" type="random" depart="2902.00" departPos="184.88" arrivalPos="64.67" arrivalSpeed="0.00" from="-142810555#0" to="85278289#8"/>
    <trip id="randUni10924:1" type="random" depart="2955.00" departPos="0.13" arrivalPos="7.85" arrivalSpeed="0.00" from="-318210367#1" to="-26991766#10"/>
    <trip id="randUni10861:1" type="random" depart="3036.00" departPos="17.43" arrivalPos="14.22" arrivalSpeed="0.00" from="-142575704#10" to="-143308562#1"/>
    <trip id="randUni7292:1" type="random" depart="3060.00" departPos="0.49" arrivalPos="15.47" arrivalSpeed="0.00" from="-142575656#10" to="142575704#9"/>
    <trip id="randUni36:1" type="random" depart="3133.00" departPos="27.39" arrivalPos="12.87" arrivalSpeed="0.00" from="45875465" to="142575710#3"/>
    <trip id="randUni15897:1" type="random" depart="3149.00" departPos="10.43" arrivalPos="85.00" arrivalSpeed="0.00" from="-20553068#1" to="98256382#1"/>
    <trip id="randUni16818:1" type="random" depart="3236.00" departPos="72.15" arrivalPos="15.48" arrivalSpeed="0.00" from="670062907#0" to="1050686757#0"/>
    <trip id="randUni14911:1" type="random" depart="3354.00" departPos="13.37" arrivalPos="0.32" arrivalSpeed="0.00" from="318210388#0" to="257072321#0"/>
    <trip id="randUni15172:1" type="random" depart="3442.00" departPos="12.68" arrivalPos="31.57" arrivalSpeed="0.00" from="1050686757#1" to="45875465"/>
    <trip id="randUni2536:1" type="random" depart="3534.00" departPos="15.76" arrivalPos="117.43" arrivalSpeed="0.00" from="-142575659#0" to="140964908#1"/>
    <trip id="randUni5467:1" type="random" depart="3593.00" departPos="46.29" arrivalPos="11.26" arrivalSpeed="0.00" from="-143308521#6" to="152046273"/>
    <trip id="randUni13220:1" type="random" depart="3612.00" departPos="43.58" arrivalPos="14.13" arrivalSpeed="0.00" from="40191607#2" to="-148803147#1"/>
    <trip id="randUni14389:1" type="random" depart="3680.00" departPos="18.65" arrivalPos="21.70" arrivalSpeed="0.00" from="-142575672#2" to="20553917#0"/>
    <trip id="randUni4513:1" type="random" depart="3690.00" departPos="0.32" arrivalPos="15.78" arrivalSpeed="0.00" from="-149611511#1" to="-187123000#0"/>
    <trip id="randUni1712:1" type="random" depart="3797.00" departPos="104.40" arrivalPos="31.38" arrivalSpeed="0.00" from="180789857#1" to="35554225#4"/>
    <trip id="randUni13880:1" type="random" depart="3797.00" departPos="9.29" arrivalPos="311.56" arrivalSpeed="0.00" from="-23925124#0" to="856407909"/>
    <trip id="randUni5743:1" type="random" depart="4078.00" departPos="14.40" arrivalPos="0.00" arrivalSpeed="0.00" from="-23925124#1" to="146511461#5"/>
    <trip id="randUni8585:1" type="random" depart="4286.00" departPos="33.84" arrivalPos="22.22" arrivalSpeed="0.00" from="-318210364" to="1085132033#2"/>
    <trip id="randUni853:1" type="random" depart="4341.00" departPos="52.92" arrivalPos="6.90" arrivalSpeed="0.00" from="190083610#1" to="142575700#4"/>
    <trip id="randUni14947:1" type="random" depart="4364.00" departPos="6.46" arrivalPos="20.33" arrivalSpeed="0.00" from="140964924" to="172014854#1"/>
    <trip id="randUni12778:1" type="random" depart="4369.00" departPos="5.95" arrivalPos="42.17" arrivalSpeed="0.00" from="-142575710#2" to="238053692"/>
    <trip id="randUni12400:1" type="random" depart="4410.00" departPos="6.04" arrivalPos="32.62" arrivalSpeed="0.00" from="800655352#0" to="178028206#1"/>
    <trip id="randUni3855:1" type="random" depart="4514.00" departPos="55.41" arrivalPos="32.76" arrivalSpeed="0.00" from="142575657#6" to="395077041"/>
    <trip id="randUni12182:1" type="random" depart="4521.00" departPos="34.07" arrivalPos="9.12" arrivalSpeed="0.00" from="-314415495#7" to="142575659#3"/>
    <trip id="randUni16744:1" type="random" depart="4745.00" departPos="42.75" arrivalPos="0.17" arrivalSpeed="0.00" from="-1118380198" to="142575677#3"/>
    <trip id="randUni2128:1" type="random" depart="4776.00" departPos="14.76" arrivalPos="30.10" arrivalSpeed="0.00" from="-318210362" to="52081075#3"/>
    <trip id="randUni15069:1" type="random" depart="4779.00" departPos="38.19" arrivalPos="28.08" arrivalSpeed="0.00" from="-142575656#3" to="-149611514#4"/>
    <trip id="randUni10753:1" type="random" depart="4788.00" departPos="21.59" arrivalPos="32.55" arrivalSpeed="0.00" from="-142575684#5" to="143308562#1"/>
    <trip id="randUni7000:1" type="random" depart="4854.00" departPos="8.03" arrivalPos="192.07" arrivalSpeed="0.00" from="408709154#2" to="39969574#0"/>
    <trip id="randUni363:1" type="random" depart="4911.00" departPos="3.26" arrivalPos="2.36" arrivalSpeed="0.00" from="204977490#0" to="142575657#5"/>
    <trip id="randUni16253:1" type="random" depart="4921.00" departPos="80.94" arrivalPos="7.30" arrivalSpeed="0.00" from="20553007" to="334308447#5"/>
    <trip id="randUni15444:1" type="random" depart="4938.00" departPos="1.49" arrivalPos="25.79" arrivalSpeed="0.00" from="204977490#1" to="-146511456#7"/>
    <trip id="randUni8840:1" type="random" depart="5185.00" departPos="22.31" arrivalPos="0.97" arrivalSpeed="0.00" from="334308447#5" to="-1125710845"/>
    <trip id="randUni11891:1" type="random" depart="5305.00" departPos="41.28" arrivalPos="33.22" arrivalSpeed="0.00" from="178028203#1" to="143308562#3"/>
    <trip id="randUni7043:1" type="random" depart="5377.00" departPos="22.48" arrivalPos="23.59" arrivalSpeed="0.00" from="-1093549448#2" to="146511461#1"/>
    <trip id="randUni2754:1" type="random" depart="5392.00" departPos="148.30" arrivalPos="9.86" arrivalSpeed="0.00" from="177615722" to="23913523#3"/>
    <trip id="randUni404:1" type="random" depart="5431.00" departPos="4.18" arrivalPos="20.82" arrivalSpeed="0.00" from="-140964910#1" to="-177615728#0"/>
    <trip id="randUni9973:1" type="random" depart="5463.00" departPos="74.35" arrivalPos="3.10" arrivalSpeed="0.00" from="-142575695" to="-143308527#2"/>
    <trip id="randUni7716:1" type="random" depart="5473.00" departPos="12.39" arrivalPos="3.30" arrivalSpeed="0.00" from="20554351" to="-146511456#3"/>
    <trip id="randUni13728:1" type="random" depart="5599.00" departPos="37.74" arrivalPos="10.30" arrivalSpeed="0.00" from="-180789857#0" to="142575659#3"/>
    <trip id="randUni1474:1" type="random" depart="5638.00" departPos="21.20" arrivalPos="0.13" arrivalSpeed="0.00" from="8025704" to="70130339#2"/>
    <trip id="randUni6641:1" type="random" depart="5704.00" departPos="134.63" arrivalPos="8.30" arrivalSpeed="0.00" from="-19585573#1" to="679285267#1"/>
    <trip id="randUni16323:1" type="random" depart="5830.00" departPos="25.82" arrivalPos="41.11" arrivalSpeed="0.00" from="-1093548834#1" to="311299993#1"/>
    <trip id="randUni13601:1" type="random" depart="5894.00" departPos="654.15" arrivalPos="32.52" arrivalSpeed="0.00" from="224731112" to="-318210361#2"/>
    <trip id="randUni1247:1" type="random" depart="5921.00" departPos="53.45" arrivalPos="21.87" arrivalSpeed="0.00" from="38159999#1" to="-679901152#2"/>
    <trip id="randUni7440:1" type="random" depart="5980.00" departPos="73.77" arrivalPos="6.79" arrivalSpeed="0.00" from="187123033#1" to="-35554225#3"/>
    <trip id="randUni12711:1" type="random" depart="6014.00" departPos="2.44" arrivalPos="62.89" arrivalSpeed="0.00" from="147859765#2" to="20552746"/>
    <trip id="randUni11992:1" type="random" depart="6027.00" departPos="1.72" arrivalPos="11.05" arrivalSpeed="0.00" from="1093549550#1" to="1118064016"/>
    <trip id="randUni9941:1" type="random" depart="6161.00" departPos="15.34" arrivalPos="11.98" arrivalSpeed="0.00" from="35554268#2" to="35215636"/>
    <trip id="randUni4253:1" type="random" depart="6172.00" departPos="304.42" arrivalPos="39.25" arrivalSpeed="0.00" from="-206889085" to="147859765#2"/>
    <trip id="randUni15737:1" type="random" depart="6214.00" departPos="4.06" arrivalPos="30.16" arrivalSpeed="0.00" from="142575673#1" to="-1118380198"/>
    <trip id="randUni14558:1" type="random" depart="6323.00" departPos="72.27" arrivalPos="10.14" arrivalSpeed="0.00" from="20551912" to="318210366"/>
    <trip id="randUni8487:1" type="random" depart="6325.00" departPos="17.15" arrivalPos="9.40" arrivalSpeed="0.00" from="142575655#3" to="670062913"/>
    <trip id="randUni3907:1" type="random" depart="6705.00" departPos="7.18" arrivalPos="13.79" arrivalSpeed="0.00" from="-841345129#3" to="-142575656#2"/>
    <trip id="randUni16039:1" type="random" depart="6807.00" departPos="76.98" arrivalPos="66.74" arrivalSpeed="0.00" from="20554204#0" to="142575693#5"/>
    <trip id="randUni16001:1" type="random" depart="6945.00" departPos="7.65" arrivalPos="3.77" arrivalSpeed="0.00" from="142575688#5" to="843190005#1"/>
    <trip id="randUni4956:1" type="random" depart="6961.00" departPos="44.85" arrivalPos="0.22" arrivalSpeed="0.00" from="40191607#0" to="298150665#1"/>
    <trip id="randUni5674:1" type="random" depart="6993.00" departPos="2.52" arrivalPos="68.54" arrivalSpeed="0.00" from="26321237#0" to="810461499#0"/>
    <trip id="randUni13268:1" type="random" depart="7011.00" departPos="18.37" arrivalPos="29.67" arrivalSpeed="0.00" from="-298150665#5" to="11389571#2"/>
    <trip id="randUni8559:1" type="random" depart="7280.00" departPos="31.20" arrivalPos="4.95" arrivalSpeed="0.00" from="142575674#1" to="-26991766#2"/>
    <trip id="randUni5895:1" type="random" depart="7333.00" departPos="214.94" arrivalPos="39.34" arrivalSpeed="0.00" from="20554204#1" to="-143308562#2"/>
    <trip id="randUni11921:1" type="random" depart="7465.00" departPos="3.30" arrivalPos="7.31" arrivalSpeed="0.00" from="142575704#10" to="38159999#1"/>
    <trip id="randUni905:1" type="random" depart="7573.00" departPos="9.37" arrivalPos="85.32" arrivalSpeed="0.00" from="-679285267#1" to="-142575656#0"/>
    <trip id="randUni13333:1" type="random" depart="7575.00" departPos="32.20" arrivalPos="10.95" arrivalSpeed="0.00" from="-142575684#1" to="39969574#0"/>
    <trip id="randUni3977:1" type="random" depart="7658.00" departPos="78.20" arrivalPos="48.47" arrivalSpeed="0.00" from="-318210378#0" to="91218505#2"/>
    <trip id="randUni2742:1" type="random" depart="7747.00" departPos="154.56" arrivalPos="20.33" arrivalSpeed="0.00" from="-151237820" to="25042028#2"/>
    <trip id="randUni8124:1" type="random" depart="7748.00" departPos="9.14" arrivalPos="1.19" arrivalSpeed="0.00" from="-148803147#3" to="-142575659#2"/>
    <trip id="randUni3307:1" type="random" depart="7915.00" departPos="3.43" arrivalPos="113.50" arrivalSpeed="0.00" from="-43660343#1" to="-19585417#1"/>
    <trip id="randUni6470:1" type="random" depart="7982.00" departPos="102.61" arrivalPos="53.87" arrivalSpeed="0.00" from="670062907#0" to="-140964927#0"/>
    <trip id="randUni14609:1" type="random" depart="7995.00" departPos="14.04" arrivalPos="53.50" arrivalSpeed="0.00" from="-190083618#2" to="23913525#1"/>
    <trip id="randUni16215:1" type="random" depart="8049.00" departPos="0.51" arrivalPos="21.71" arrivalSpeed="0.00" from="1072255238#0" to="33690600"/>
    <trip id="randUni15355:1" type="random" depart="8149.00" departPos="31.30" arrivalPos="23.87" arrivalSpeed="0.00" from="-177615728#0" to="48858192#0"/>
    <trip id="randUni4020:1" type="random" depart="8258.00" departPos="163.35" arrivalPos="31.15" arrivalSpeed="0.00" from="-35554226" to="147859765#4"/>
    <trip id="randUni13398:1" type="random" depart="8291.00" departPos="56.24" arrivalPos="40.36" arrivalSpeed="0.00" from="27087586#0" to="-19589130#2"/>
    <trip id="randUni2692:1" type="random" depart="8329.00" departPos="4.18" arrivalPos="36.19" arrivalSpeed="0.00" from="-298150665#1" to="-178028203#2"/>
    <trip id="randUni3804:1" type="random" depart="8347.00" departPos="208.33" arrivalPos="3.42" arrivalSpeed="0.00" from="-23913524" to="376421806#3"/>
    <trip id="randUni13262:1" type="random" depart="8523.00" departPos="4.01" arrivalPos="21.46" arrivalSpeed="0.00" from="162915320#0" to="-142575691#1"/>
    <trip id="randUni8179:1" type="random" depart="8704.00" departPos="5.40" arrivalPos="79.17" arrivalSpeed="0.00" from="148803147#1" to="-142575700#5"/>
    <trip id="randUni14248:1" type="random" depart="8716.00" departPos="4.49" arrivalPos="3.15" arrivalSpeed="0.00" from="-142575657#3" to="-204977490#0"/>
    <trip id="randUni3464:1" type="random" depart="8868.00" departPos="19.31" arrivalPos="3.72" arrivalSpeed="0.00" from="-147859765#1" to="26991766#6"/>
    <trip id="randUni3916:1" type="random" depart="8940.00" departPos="45.90" arrivalPos="61.59" arrivalSpeed="0.00" from="-1050686757#1" to="980951891"/>
    <trip id="randUni2868:1" type="random" depart="8947.00" departPos="9.38" arrivalPos="51.31" arrivalSpeed="0.00" from="-142575687#0" to="26814968#0"/>
    <trip id="randUni13965:1" type="random" depart="9139.00" departPos="6.25" arrivalPos="0.12" arrivalSpeed="0.00" from="187123000#0" to="259433179"/>
    <vType id="default" vClass="passenger" color="red"/>
    <trip id="h5962c2:3" type="default" depart="9149.00" departPos="87.54" arrivalPos="135.96" arrivalSpeed="0.00" from="318210355" to="-447835331#5"/>
    <trip id="randUni8489:1" type="random" depart="9249.00" departPos="31.13" arrivalPos="9.61" arrivalSpeed="0.00" from="142575657#2" to="142575685#3"/>
    <trip id="randUni7441:1" type="random" depart="9300.00" departPos="16.04" arrivalPos="6.71" arrivalSpeed="0.00" from="-1130887422#2" to="283006415#0"/>
    <trip id="randUni8514:1" type="random" depart="9366.00" departPos="0.19" arrivalPos="10.59" arrivalSpeed="0.00" from="142575698" to="142575693#0"/>
    <trip id="carIn933:3" type="default" depart="9385.00" departPos="1.00" arrivalPos="1.00" arrivalSpeed="0.00" from="850224612" to="143308532#3"/>
    <trip id="randUni5344:1" type="random" depart="9452.00" departPos="0.31" arrivalPos="8.82" arrivalSpeed="0.00" from="-24214694#3" to="-143308493#1"/>
    <trip id="randUni4702:1" type="random" depart="9464.00" departPos="0.17" arrivalPos="8.56" arrivalSpeed="0.00" from="840101796" to="-31091957#1"/>
    <trip id="randUni13613:1" type="random" depart="9624.00" departPos="0.17" arrivalPos="10.28" arrivalSpeed="0.00" from="-35554268#1" to="-147859765#0"/>
    <trip id="randUni5543:1" type="random" depart="9706.00" departPos="12.92" arrivalPos="4.43" arrivalSpeed="0.00" from="887919961#1" to="-142575677#0"/>
    <trip id="randUni8835:1" type="random" depart="9738.00" departPos="45.31" arrivalPos="10.11" arrivalSpeed="0.00" from="153021549#1" to="-20553007"/>
    <trip id="randUni13451:1" type="random" depart="9787.00" departPos="121.00" arrivalPos="9.14" arrivalSpeed="0.00" from="-142810555#0" to="334308447#7"/>
    <trip id="h3602c1:1" type="default" depart="9882.00" departPos="175.03" arrivalPos="118.91" arrivalSpeed="0.00" from="-23913522#2" to="140964907#3"/>
    <trip id="carIn1494:3" type="default" depart="9895.00" departPos="384.07" arrivalPos="1.00" arrivalSpeed="0.00" from="40451057" to="177615723#1"/>
    <trip id="h11557c1:3" type="default" depart="9910.00" departPos="64.78" arrivalPos="13.58" arrivalSpeed="0.00" from="-850224612" to="20551905#3"/>
    <trip id="randUni16737:1" type="random" depart="9957.00" departPos="56.11" arrivalPos="18.87" arrivalSpeed="0.00" from="1093548834#2" to="-1093549550#0"/>
    <trip id="randUni9213:1" type="random" depart="10074.00" departPos="0.14" arrivalPos="102.53" arrivalSpeed="0.00" from="318210367#1" to="887919959#1"/>
    <trip id="randUni5448:1" type="random" depart="10094.00" departPos="44.36" arrivalPos="9.58" arrivalSpeed="0.00" from="318210395" to="20554179#1"/>
    <trip id="randUni6419:1" type="random" depart="10136.00" departPos="62.35" arrivalPos="25.28" arrivalSpeed="0.00" from="143308542#10" to="238053690#1"/>
    <trip id="randUni314:1" type="random" depart="10181.00" departPos="61.25" arrivalPos="16.64" arrivalSpeed="0.00" from="-1118380198" to="-229228933#1"/>
    <trip id="randUni128:1" type="random" depart="10288.00" departPos="81.00" arrivalPos="44.33" arrivalSpeed="0.00" from="142575700#5" to="-810461499#2"/>
    <trip id="h4816c2:1" type="default" depart="10311.00" departPos="5.47" arrivalPos="58.84" arrivalSpeed="0.00" from="-314415495#1" to="113575152#8"/>
    <trip id="randUni13675:1" type="random" depart="10313.00" departPos="59.28" arrivalPos="77.37" arrivalSpeed="0.00" from="190928927#2" to="-38915290"/>
    <trip id="randUni11171:1" type="random" depart="10480.00" departPos="23.68" arrivalPos="89.86" arrivalSpeed="0.00" from="-1050686766#0" to="142575656#0"/>
    <trip id="randUni16221:1" type="random" depart="10501.00" departPos="102.74" arrivalPos="1.14" arrivalSpeed="0.00" from="-23483378" to="-26321391#1"/>
    <trip id="randUni13681:1" type="random" depart="10531.00" departPos="10.09" arrivalPos="32.34" arrivalSpeed="0.00" from="142575679#3" to="-31050360#2"/>
    <trip id="randUni15683:1" type="random" depart="10580.00" departPos="13.86" arrivalPos="63.09" arrivalSpeed="0.00" from="-142575656#4" to="85278289#7"/>
    <trip id="h12145c1:1" type="default" depart="10581.00" departPos="319.39" arrivalPos="165.21" arrivalSpeed="0.00" from="23010373" to="-206889085"/>
    <trip id="randUni8271:1" type="random" depart="10602.00" departPos="17.38" arrivalPos="11.32" arrivalSpeed="0.00" from="1050686766#1" to="-334308447#10"/>
    <trip id="randUni9767:1" type="random" depart="10643.00" departPos="36.60" arrivalPos="28.40" arrivalSpeed="0.00" from="314415495#5" to="142575699#0"/>
    <trip id="randUni16456:1" type="random" depart="10656.00" departPos="9.88" arrivalPos="12.34" arrivalSpeed="0.00" from="1066219245#6" to="-142575704#5"/>
    <trip id="randUni11594:1" type="random" depart="10728.00" departPos="0.20" arrivalPos="11.70" arrivalSpeed="0.00" from="-259433181" to="142575678"/>
    <trip id="randUni3886:1" type="random" depart="10768.00" departPos="26.51" arrivalPos="101.90" arrivalSpeed="0.00" from="-146511468#0" to="-142575704#1"/>
    <trip id="h7530c1:3" type="default" depart="10772.00" departPos="1.00" arrivalPos="6.04" arrivalSpeed="0.00" from="97206935#0" to="-841345135#0"/>
    <trip id="randUni5751:1" type="random" depart="10876.00" departPos="45.26" arrivalPos="10.61" arrivalSpeed="0.00" from="71028774#1" to="23913523#0"/>
    <trip id="randUni9861:1" type="random" depart="10889.00" departPos="66.65" arrivalPos="10.60" arrivalSpeed="0.00" from="-149611514#7" to="70553224#2"/>
    <trip id="randUni12380:1" type="random" depart="10889.00" departPos="27.20" arrivalPos="121.53" arrivalSpeed="0.00" from="142575710#3" to="-229228933#3"/>
    <trip id="randUni15120:1" type="random" depart="10900.00" departPos="16.78" arrivalPos="0.87" arrivalSpeed="0.00" from="-23913522#1" to="147859765#1"/>
    <trip id="randUni10207:1" type="random" depart="10913.00" departPos="29.83" arrivalPos="0.31" arrivalSpeed="0.00" from="140964910#3" to="1075528615#3"/>
    <trip id="randUni13339:1" type="random" depart="10955.00" departPos="2.86" arrivalPos="48.72" arrivalSpeed="0.00" from="334308447#9" to="25042028#4"/>
    <trip id="h9170c1:1" type="default" depart="11086.00" departPos="136.57" arrivalPos="20.21" arrivalSpeed="0.00" from="140964910#0" to="841345129#4"/>
    <trip id="randUni6135:1" type="random" depart="11142.00" departPos="28.38" arrivalPos="97.55" arrivalSpeed="0.00" from="25042028#1" to="-35554226"/>
    <trip id="randUni12408:1" type="random" depart="11237.00" departPos="1.32" arrivalPos="91.09" arrivalSpeed="0.00" from="311299992#3" to="-35540936"/>
    <trip id="h11027c1:1" type="default" depart="11258.00" departPos="9.93" arrivalPos="174.91" arrivalSpeed="0.00" from="170543741#1" to="153021545#0"/>
    <trip id="randUni8130:1" type="random" depart="11266.00" departPos="1.30" arrivalPos="4.85" arrivalSpeed="0.00" from="142575655#7" to="-1072185418#1"/>
    <trip id="randUni3950:1" type="random" depart="11287.00" departPos="6.41" arrivalPos="41.14" arrivalSpeed="0.00" from="20554179#1" to="33690600"/>
    <trip id="randUni16533:1" type="random" depart="11355.00" departPos="5.33" arrivalPos="17.66" arrivalSpeed="0.00" from="-320741893" to="-334308450#1"/>
    <trip id="randUni15454:1" type="random" depart="11376.00" departPos="37.09" arrivalPos="37.45" arrivalSpeed="0.00" from="-26991766#10" to="-143308562#0"/>
    <trip id="randUni1470:1" type="random" depart="11387.00" departPos="56.24" arrivalPos="53.89" arrivalSpeed="0.00" from="-177615719#0" to="-142575704#8"/>
    <trip id="randUni4340:1" type="random" depart="11428.00" departPos="82.32" arrivalPos="47.83" arrivalSpeed="0.00" from="147053824#2" to="-229228933#2"/>
    <trip id="randUni12930:1" type="random" depart="11447.00" departPos="32.27" arrivalPos="19.43" arrivalSpeed="0.00" from="142575661#2" to="142575657#6"/>
    <trip id="carIn545:1" type="default" depart="11555.00" departPos="1.00" arrivalPos="4.42" arrivalSpeed="0.00" from="177615723#1" to="187123053#2"/>